131
_NaVPO4F_su_s10_1u_100_end_used_for_scaling
Na 10.93029 4.97724 2.96914 
Na 1.91586 1.36742 8.35032 
Na 4.50722 4.53974 2.96914 
Na 8.33893 1.80491 8.35032 
Na 7.70737 4.94101 0.72105 
Na 5.13877 1.40364 6.10223 
Na 1.28430 4.57597 0.72105 
Na 11.56184 1.76868 6.10223 
Na 10.93029 11.32190 2.96914 
Na 1.91586 7.71207 8.35032 
Na 4.50722 10.88440 2.96914 
Na 8.33893 8.14957 8.35032 
Na 7.70737 11.28567 0.72105 
Na 5.13877 7.74830 6.10223 
Na 1.28430 10.92063 0.72105 
Na 11.56184 8.11334 6.10223 
V 11.34115 3.25021 0.07478 
V 1.50499 3.09444 5.45596 
V 4.91808 6.26677 0.07478 
V 7.92807 0.07788 5.45596 
V 9.42860 1.64220 2.61994 
V 3.41754 4.70246 8.00111 
V 3.00553 1.53013 2.61994 
V 9.84062 4.81453 8.00111 
V 11.34115 9.59487 0.07478 
V 1.50499 9.43910 5.45596 
V 4.91808 12.61143 0.07478 
V 7.92807 6.42254 5.45596 
V 9.42860 7.98686 2.61994 
V 3.41754 11.04711 8.00111 
V 3.00553 7.87478 2.61994 
V 9.84062 11.15919 8.00111 
P 12.64894 2.12820 2.86568 
P 0.19721 4.21646 8.24686 
P 6.22587 1.04413 2.86568 
P 6.62028 5.30053 8.24686 
P 8.80537 3.26502 5.39357 
P 4.04077 3.07964 0.01239 
P 2.38230 6.25197 5.39357 
P 10.46385 0.09269 0.01239 
P 12.64894 8.47285 2.86568 
P 0.19721 10.56112 8.24686 
P 6.22587 7.38879 2.86568 
P 6.62028 11.64518 8.24686 
P 8.80537 9.60968 5.39357 
P 4.04077 9.42430 0.01239 
P 2.38230 12.59662 5.39357 
P 10.46385 6.43735 0.01239 
O 12.46663 3.28213 1.82820 
O 0.37951 3.06252 7.20938 
O 6.04356 6.23485 1.82820 
O 6.80259 0.10980 7.20938 
O 12.76126 2.81764 4.26843 
O 0.08489 3.52702 9.64961 
O 6.33819 0.35469 4.26843 
O 6.50796 5.98997 9.64961 
O 11.39928 1.20566 2.89995 
O 1.44686 5.13900 8.28113 
O 4.97621 1.96667 2.89995 
O 7.86993 4.37799 8.28113 
O 1.03144 1.25649 2.52796 
O 11.81470 5.08817 7.90914 
O 7.45452 1.91584 2.52796 
O 5.39163 4.42882 7.90914 
O 7.93220 2.04636 5.78411 
O 4.91394 4.29830 0.40293 
O 1.50913 1.12597 5.78411 
O 11.33701 5.21869 0.40293 
O 7.86511 4.47125 5.29052 
O 4.98104 1.87341 10.67170 
O 1.44203 5.04573 5.29052 
O 11.40411 1.29892 10.67170 
O 9.87965 3.43678 6.52097 
O 2.96649 2.90788 1.13980 
O 3.45658 6.08020 6.52097 
O 9.38956 0.26445 1.13980 
O 9.58970 3.04045 4.07044 
O 3.25645 3.30420 9.45162 
O 3.16663 0.13188 4.07044 
O 9.67952 6.21278 9.45162 
O 12.46663 9.62679 1.82820 
O 0.37951 9.40718 7.20938 
O 6.04356 12.57951 1.82820 
O 6.80259 6.45446 7.20938 
O 12.76126 9.16230 4.26843 
O 0.08489 9.87167 9.64961 
O 6.33819 6.69934 4.26843 
O 6.50796 12.33463 9.64961 
O 11.39928 7.55031 2.89995 
O 1.44686 11.48366 8.28113 
O 4.97621 8.31133 2.89995 
O 7.86993 10.72264 8.28113 
O 1.03144 7.60115 2.52796 
O 11.81470 11.43282 7.90914 
O 7.45452 8.26050 2.52796 
O 5.39163 10.77348 7.90914 
O 7.93220 8.39102 5.78411 
O 4.91394 10.64296 0.40293 
O 1.50913 7.47063 5.78411 
O 11.33701 11.56334 0.40293 
O 7.86511 10.81591 5.29052 
O 4.98104 8.21806 10.67170 
O 1.44203 11.39039 5.29052 
O 11.40411 7.64358 10.67170 
O 9.87965 9.78144 6.52097 
O 2.96649 9.25253 1.13980 
O 3.45658 12.42486 6.52097 
O 9.38956 6.60911 1.13980 
O 9.58970 9.38511 4.07044 
O 3.25645 9.64886 9.45162 
O 3.16663 6.47653 4.07044 
O 9.67952 12.55744 9.45162 
F 10.04486 3.25699 9.28454 
F 2.80128 3.08767 3.90336 
F 3.62179 6.26000 9.28454 
F 9.22436 0.08466 3.90336 
F 9.68022 3.18505 1.27960 
F 3.16593 3.15961 6.66078 
F 3.25714 6.33193 1.27960 
F 9.58900 0.01272 6.66078 
F 10.04486 9.60165 9.28454 
F 2.80128 9.43233 3.90336 
F 3.62179 12.60466 9.28454 
F 9.22436 6.42932 3.90336 
F 9.68022 9.52971 1.27960 
F 3.16593 9.50426 6.66078 
F 3.25714 12.67659 1.27960 
F 9.58900 6.35738 6.66078 
Tv 12.8461450000 0.0000000000 0.0000000000
Tv 0.0000000000 12.6893150000 0.0000000000
Tv 0.0000000000 0.0000000000 10.7623550000
